Version 4.1
SHEET 1 1188 680
WIRE -512 -512 -768 -512
WIRE -160 -512 -432 -512
WIRE 224 -400 224 -432
WIRE -512 -384 -720 -384
WIRE -272 -384 -416 -384
WIRE -880 -352 -960 -352
WIRE -768 -352 -768 -512
WIRE -768 -352 -800 -352
WIRE -512 -352 -768 -352
WIRE -160 -352 -160 -512
WIRE -160 -352 -416 -352
WIRE -960 -320 -960 -352
WIRE -512 -320 -576 -320
WIRE -384 -320 -416 -320
WIRE -272 -320 -272 -384
WIRE -272 -320 -320 -320
WIRE -576 -288 -576 -320
WIRE -160 -288 -160 -352
WIRE 352 -192 352 -224
WIRE 352 -176 352 -192
WIRE -800 -160 -832 -160
WIRE -720 -160 -720 -384
WIRE -464 -160 -720 -160
WIRE -160 -160 -160 -208
WIRE -160 -160 -384 -160
WIRE 320 -160 -160 -160
WIRE -160 -128 -160 -160
WIRE 320 -112 320 -128
WIRE 320 -112 240 -112
WIRE 624 -80 496 -80
WIRE 672 -80 624 -80
WIRE 320 -32 240 -32
WIRE -160 0 -160 -48
WIRE 112 0 -160 0
WIRE 320 0 112 0
WIRE 432 0 432 -16
WIRE 352 32 352 16
WIRE 432 32 432 0
WIRE 352 64 352 32
WIRE 352 272 352 240
WIRE 352 288 352 272
WIRE 112 304 112 0
WIRE 320 304 112 304
WIRE 112 336 112 304
WIRE 320 336 224 336
WIRE 224 352 224 336
WIRE 624 384 496 384
WIRE 672 384 624 384
WIRE 320 432 224 432
WIRE 112 464 112 416
WIRE 320 464 112 464
WIRE 432 464 432 448
WIRE 352 496 352 480
WIRE 432 496 432 464
WIRE 352 528 352 496
FLAG -832 -160 0
FLAG -160 -160 Vout
FLAG -576 -320 VCC
IOPIN -576 -320 In
FLAG -272 -384 VEE
IOPIN -272 -384 In
FLAG -272 -256 0
FLAG -576 -224 0
FLAG -960 -240 0
FLAG 432 96 0
FLAG 432 560 0
FLAG 352 592 0
FLAG 352 -288 0
FLAG 352 176 0
FLAG 352 -192 VCC
IOPIN 352 -192 In
FLAG 352 272 VCC
IOPIN 352 272 In
FLAG 352 128 0
FLAG 352 32 VEE
IOPIN 352 32 In
FLAG 352 496 VEE
IOPIN 352 496 In
FLAG 432 0 VREF
IOPIN 432 0 In
FLAG 432 464 VREF
IOPIN 432 464 In
FLAG 624 384 U_Rshunt
FLAG 624 -80 U_DUT
FLAG 112 464 0
FLAG 0 -320 0
FLAG 112 -320 0
FLAG 112 -400 VEE
IOPIN 112 -400 In
FLAG 0 -400 VCC
IOPIN 0 -400 In
FLAG 224 -320 0
FLAG 224 -432 VREF
IOPIN 224 -432 In
SYMBOL res -416 -496 M270
WINDOW 0 32 56 VTop 2
WINDOW 3 0 56 VBottom 2
SYMATTR InstName R4
SYMATTR Value 3.5k
SYMBOL res -704 -176 R90
WINDOW 0 0 56 VBottom 2
WINDOW 3 32 56 VTop 2
SYMATTR InstName R3
SYMATTR Value 30k
SYMBOL ad8021 -464 -352 R0
SYMATTR InstName U1
SYMBOL res -896 -368 M90
WINDOW 0 -6 54 VBottom 2
WINDOW 3 34 60 VTop 2
SYMATTR InstName R1
SYMATTR Value 30k
SYMBOL res -144 -304 M0
WINDOW 0 -49 37 Left 2
WINDOW 3 -36 65 Left 2
SYMATTR InstName R2b
SYMATTR Value 3k
SYMBOL res -480 -176 M90
WINDOW 0 0 56 VBottom 2
WINDOW 3 32 56 VTop 2
SYMATTR InstName R2a
SYMATTR Value 0.5k
SYMBOL res -176 -32 M180
WINDOW 0 36 76 Left 2
WINDOW 3 36 40 Left 2
SYMATTR InstName ZL1
SYMATTR Value 11.5k
SYMBOL cap -320 -336 R90
WINDOW 0 0 32 VBottom 2
WINDOW 3 32 32 VTop 2
SYMATTR InstName C1
SYMATTR Value 10p
SYMBOL cap -288 -320 R0
SYMATTR InstName C2
SYMATTR Value 10p
SYMBOL cap -592 -288 R0
WINDOW 0 -33 22 Left 2
WINDOW 3 -56 44 Left 2
SYMATTR InstName C3
SYMATTR Value 0.1µ
SYMBOL voltage -960 -336 R0
WINDOW 123 40 46 Left 2
WINDOW 39 0 0 Left 0
WINDOW 0 38 20 Left 2
WINDOW 3 38 75 Left 2
SYMATTR Value2 AC 3.3
SYMATTR InstName V3
SYMATTR Value SINE(0 3.3 50k)
SYMBOL OpAmps\\AD8421 352 -80 R0
SYMATTR InstName U2
SYMBOL OpAmps\\AD8421 352 384 R0
SYMATTR InstName U3
SYMBOL cap 416 32 R0
SYMATTR InstName C4
SYMATTR Value 0.1µ
SYMBOL cap 416 496 R0
SYMATTR InstName C5
SYMATTR Value 0.1µ
SYMBOL cap 336 528 R0
SYMATTR InstName C6
SYMATTR Value 0.1µ
SYMBOL res 256 -16 R180
WINDOW 0 -39 64 Left 2
WINDOW 3 -54 36 Left 2
SYMATTR InstName R6
SYMATTR Value 100k
SYMBOL res 240 448 R180
WINDOW 0 -26 67 Left 2
WINDOW 3 -65 42 Left 2
SYMATTR InstName R7
SYMATTR Value 100k
SYMBOL cap 368 -224 R180
WINDOW 0 24 56 Left 2
WINDOW 3 24 8 Left 2
SYMATTR InstName C7
SYMATTR Value 0.1µ
SYMBOL cap 368 240 R180
WINDOW 0 24 56 Left 2
WINDOW 3 24 8 Left 2
SYMATTR InstName C8
SYMATTR Value 0.1µ
SYMBOL cap 336 64 R0
SYMATTR InstName C9
SYMATTR Value 0.1µ
SYMBOL res 128 432 R180
WINDOW 0 36 76 Left 2
WINDOW 3 36 40 Left 2
SYMATTR InstName RShunt1
SYMATTR Value 1k
SYMBOL voltage 0 -416 R0
WINDOW 123 0 0 Left 0
WINDOW 39 0 0 Left 0
SYMATTR InstName V5
SYMATTR Value 6
SYMBOL voltage 112 -416 R0
WINDOW 123 0 0 Left 0
WINDOW 39 0 0 Left 0
SYMATTR InstName V6
SYMATTR Value -6
SYMBOL voltage 224 -416 R0
WINDOW 123 0 0 Left 0
WINDOW 39 0 0 Left 0
SYMATTR InstName V7
SYMATTR Value 1.65
TEXT -2000 -184 Left 2 ;.tran 0.2m
TEXT -2000 -152 Left 2 !.ac dec 1000 1 10000000
TEXT -2000 -104 Left 2 ;-0<vdut<3.3V FOR MAX ZL=11.5K\n-ZL=[1,15k] ohm, between 1KHz and 300KHz\n \nin the transient:\n-I_ZL=I_RsHUNT (condition nedded for later)\n-I_ZL< 120uA (ac analysis)\n-for Vinput<3.3V no saturation (transient) \n \nin the ac analysis, \n-ZL is stable <1Mhz\n-view Z_DUT like this: \n(V(u_dut)/V(U_rshunt))*1000\n \n-current stable (ac analysis), sinusoidal (transient)\n-power supply=+-6V\n-POWER CONSUMPTION= 62mW x2 (+vcc, -vcc) = 124 mW
