Version 4.1
SHEET 1 1240 1632
WIRE -240 96 -400 96
WIRE -368 160 -624 160
WIRE -112 160 -272 160
WIRE -400 192 -400 96
WIRE -368 192 -400 192
WIRE -240 192 -240 96
WIRE -240 192 -272 192
WIRE 16 192 -240 192
WIRE -368 224 -464 224
WIRE -240 224 -272 224
WIRE -112 224 -112 160
WIRE -112 224 -176 224
WIRE -464 304 -464 288
WIRE 16 368 16 192
WIRE -512 528 -528 528
WIRE -368 528 -512 528
WIRE -32 528 -272 528
WIRE -624 560 -624 160
WIRE -368 560 -624 560
WIRE 16 560 16 448
WIRE 16 560 -272 560
WIRE 112 560 16 560
WIRE 240 560 192 560
WIRE -512 592 -512 528
WIRE -464 592 -512 592
WIRE -368 592 -400 592
WIRE -128 592 -272 592
WIRE -624 624 -624 560
WIRE -128 656 -128 640
WIRE -624 928 -624 704
WIRE -400 928 -624 928
WIRE -32 928 -32 528
WIRE -32 928 -320 928
WIRE 64 928 -32 928
WIRE 176 928 144 928
WIRE -64 1040 -256 1040
WIRE -624 1072 -624 928
WIRE -352 1072 -624 1072
WIRE 208 1072 -256 1072
WIRE 224 1072 208 1072
WIRE -352 1104 -544 1104
WIRE -192 1104 -256 1104
WIRE -64 1104 -64 1040
WIRE -64 1104 -128 1104
WIRE 224 1104 224 1072
WIRE -544 1168 -544 1152
WIRE -624 1232 -624 1072
WIRE 224 1232 224 1184
WIRE 224 1232 -624 1232
FLAG 176 928 0
FLAG -48 160 0
FLAG 128 272 0
FLAG -592 528 0
FLAG 0 1040 0
FLAG -352 1040 0
FLAG 208 1072 Vout
FLAG 240 640 0
FLAG 240 288 0
FLAG 128 192 5V
IOPIN 128 192 In
FLAG -464 304 0
FLAG -128 656 0
FLAG -544 1168 0
FLAG 240 208 -5V
IOPIN 240 208 In
FLAG -464 224 5V
IOPIN -464 224 In
FLAG -128 592 5V
IOPIN -128 592 In
FLAG -544 1104 5V
IOPIN -544 1104 In
FLAG -112 224 -5V
IOPIN -112 224 In
FLAG -512 592 -5V
IOPIN -512 592 In
FLAG -64 1104 -5V
IOPIN -64 1104 In
SYMBOL res 0 352 R0
SYMATTR InstName R7
SYMATTR Value 14k
SYMBOL res 48 912 M90
WINDOW 0 0 56 VBottom 2
WINDOW 3 32 56 VTop 2
SYMATTR InstName R5
SYMATTR Value 16k
SYMBOL cap -144 656 M180
WINDOW 0 39 31 Left 2
WINDOW 3 24 8 Left 2
SYMATTR InstName C4
SYMATTR Value 0.1µ
SYMBOL ad8021 -320 192 R0
SYMATTR InstName U3
SYMBOL ad8021 -320 560 M0
SYMATTR InstName U2
SYMBOL cap -176 208 R90
WINDOW 0 0 32 VBottom 2
WINDOW 3 32 32 VTop 2
SYMATTR InstName C8
SYMATTR Value 10p
SYMBOL cap -48 144 R90
WINDOW 0 0 32 VBottom 2
WINDOW 3 32 32 VTop 2
SYMATTR InstName C7
SYMATTR Value 10p
SYMBOL res 208 544 R90
WINDOW 0 0 56 VBottom 2
WINDOW 3 32 56 VTop 2
SYMATTR InstName R6
SYMATTR Value 16k
SYMBOL res -640 608 R0
SYMATTR InstName R4
SYMATTR Value 7k
SYMBOL cap -528 1168 R180
WINDOW 0 42 31 Left 2
WINDOW 3 24 8 Left 2
SYMATTR InstName C1
SYMATTR Value 0.1µ
SYMBOL ad8021 -304 1072 R0
SYMATTR InstName U4
SYMBOL cap -128 1088 R90
WINDOW 0 0 32 VBottom 2
WINDOW 3 32 32 VTop 2
SYMATTR InstName C2
SYMATTR Value 10p
SYMBOL res -304 912 R90
WINDOW 0 0 56 VBottom 2
WINDOW 3 32 56 VTop 2
SYMATTR InstName R2
SYMATTR Value 7k
SYMBOL voltage 128 176 M0
WINDOW 123 0 0 Left 0
WINDOW 39 0 0 Left 0
WINDOW 0 -49 16 Left 2
WINDOW 3 -42 93 Left 2
SYMATTR InstName v1
SYMATTR Value 6
SYMBOL cap -480 288 M180
WINDOW 0 -34 35 Left 2
WINDOW 3 -41 13 Left 2
SYMATTR InstName C9
SYMATTR Value 0.1µ
SYMBOL cap -464 576 M90
WINDOW 0 39 8 VBottom 2
WINDOW 3 32 32 VTop 2
SYMATTR InstName C5
SYMATTR Value 10p
SYMBOL cap -592 512 M90
WINDOW 0 0 32 VBottom 2
WINDOW 3 19 47 VTop 2
SYMATTR InstName C6
SYMATTR Value 10p
SYMBOL cap 0 1024 R90
WINDOW 0 0 32 VBottom 2
WINDOW 3 32 32 VTop 2
SYMATTR InstName C3
SYMATTR Value 10p
SYMBOL voltage 240 544 R0
WINDOW 123 24 124 Left 2
WINDOW 39 0 0 Left 0
SYMATTR Value2 AC 3.3
SYMATTR InstName V3
SYMATTR Value SINE(0 3.3 1k)
SYMBOL res 240 1200 R180
WINDOW 0 36 76 Left 2
WINDOW 3 36 40 Left 2
SYMATTR InstName ZL
SYMATTR Value 5k
SYMBOL voltage 240 192 R0
WINDOW 123 0 0 Left 0
WINDOW 39 0 0 Left 0
WINDOW 3 33 87 Left 2
SYMATTR Value -6
SYMATTR InstName v2
TEXT 520 784 Left 2 ;.tran 15m
TEXT 528 840 Left 2 !.ac dec 500 1K 12000k
TEXT 520 728 Left 2 !.options method=gear
TEXT -672 0 Left 2 ;source: sa.pdf (whatsapp)\nlooks like Load in the Loop Dual Howland Current Source for  Wide Frequency Bandwidth and Wide Load  Range Bioimpedance Measurements  Hanen Nouri
