Version 4.1
SHEET 1 912 772
WIRE -640 -416 -896 -416
WIRE -288 -416 -560 -416
WIRE -1216 -400 -1216 -432
WIRE -640 -288 -848 -288
WIRE -400 -288 -544 -288
WIRE -1072 -256 -1120 -256
WIRE -896 -256 -896 -416
WIRE -896 -256 -992 -256
WIRE -640 -256 -896 -256
WIRE -288 -256 -288 -416
WIRE -288 -256 -544 -256
WIRE -1120 -224 -1120 -256
WIRE -640 -224 -704 -224
WIRE -512 -224 -544 -224
WIRE -400 -224 -400 -288
WIRE -400 -224 -448 -224
WIRE -704 -192 -704 -224
WIRE -288 -192 -288 -256
WIRE -1056 -64 -1088 -64
WIRE -848 -64 -848 -288
WIRE -848 -64 -976 -64
WIRE -592 -64 -848 -64
WIRE -288 -64 -288 -112
WIRE -288 -64 -512 -64
WIRE -48 -64 -288 -64
WIRE 240 -64 96 -64
WIRE 576 -64 576 -96
WIRE 576 -48 576 -64
WIRE -48 -32 -48 -64
WIRE 0 -32 -48 -32
WIRE 336 -32 96 -32
WIRE 544 -32 336 -32
WIRE 0 0 -64 0
WIRE 128 0 96 0
WIRE 240 0 240 -64
WIRE 240 0 192 0
WIRE 336 0 336 -32
WIRE 544 16 544 0
WIRE 544 16 464 16
WIRE -64 32 -64 0
WIRE 848 48 720 48
WIRE 896 48 848 48
WIRE 544 96 464 96
WIRE 336 128 336 80
WIRE 544 128 336 128
WIRE 656 128 656 112
WIRE 576 160 576 144
WIRE 656 160 656 128
WIRE 576 192 576 160
WIRE 576 432 576 400
WIRE 576 448 576 432
WIRE 336 464 336 128
WIRE 544 464 336 464
WIRE 336 496 336 464
WIRE 544 512 544 496
WIRE 544 512 464 512
WIRE 848 544 720 544
WIRE 896 544 848 544
WIRE 544 592 464 592
WIRE -288 624 -288 -64
WIRE 336 624 336 576
WIRE 336 624 -288 624
WIRE 544 624 336 624
WIRE 656 624 656 608
WIRE 576 656 576 640
WIRE 656 656 656 624
WIRE 576 688 576 656
FLAG -1088 -64 0
FLAG -288 -64 Vout
FLAG -704 -224 VCC
IOPIN -704 -224 In
FLAG -400 -288 VEE
IOPIN -400 -288 In
FLAG -400 -160 0
FLAG -704 -128 0
FLAG -1104 -336 0
FLAG -992 -336 0
FLAG -992 -416 VEE
IOPIN -992 -416 In
FLAG -1104 -416 VCC
IOPIN -1104 -416 In
FLAG -1120 -144 0
FLAG -64 0 VCC
IOPIN -64 0 In
FLAG 240 -64 VEE
IOPIN 240 -64 In
FLAG 240 64 0
FLAG -64 96 0
FLAG 0 -64 0
FLAG 656 224 0
FLAG 576 -160 0
FLAG 576 -64 VCC
IOPIN 576 -64 In
FLAG 576 256 0
FLAG 576 160 VEE
IOPIN 576 160 In
FLAG 656 128 VREF
IOPIN 656 128 In
FLAG 848 48 U_DUT
FLAG -1216 -320 0
FLAG -1216 -432 VREF
IOPIN -1216 -432 In
FLAG 656 720 0
FLAG 576 336 0
FLAG 576 432 VCC
IOPIN 576 432 In
FLAG 576 752 0
FLAG 576 656 VEE
IOPIN 576 656 In
FLAG 656 624 VREF
IOPIN 656 624 In
FLAG 848 544 VRshunt
SYMBOL res -544 -400 M270
WINDOW 0 32 56 VTop 2
WINDOW 3 0 56 VBottom 2
SYMATTR InstName R1
SYMATTR Value 3.5k
SYMBOL res -960 -80 R90
WINDOW 0 0 56 VBottom 2
WINDOW 3 32 56 VTop 2
SYMATTR InstName R2
SYMATTR Value 30k
SYMBOL ad8021 -592 -256 R0
SYMATTR InstName U1
SYMBOL res -1088 -272 M90
WINDOW 0 0 56 VBottom 2
WINDOW 3 32 56 VTop 2
SYMATTR InstName R3
SYMATTR Value 30k
SYMBOL res -272 -208 M0
WINDOW 0 -49 37 Left 2
WINDOW 3 -36 65 Left 2
SYMATTR InstName R4
SYMATTR Value 3k
SYMBOL res -608 -80 M90
WINDOW 0 0 56 VBottom 2
WINDOW 3 32 56 VTop 2
SYMATTR InstName R5
SYMATTR Value 0.5k
SYMBOL res 320 96 M180
WINDOW 0 36 76 Left 2
WINDOW 3 36 40 Left 2
SYMATTR InstName ZL1
SYMATTR Value 12k
SYMBOL cap -448 -240 R90
WINDOW 0 0 32 VBottom 2
WINDOW 3 32 32 VTop 2
SYMATTR InstName C1
SYMATTR Value 10p
SYMBOL cap -416 -224 R0
SYMATTR InstName C2
SYMATTR Value 10p
SYMBOL cap -720 -192 R0
WINDOW 0 -33 22 Left 2
WINDOW 3 -56 44 Left 2
SYMATTR InstName C3
SYMATTR Value 0.1µ
SYMBOL voltage -1104 -432 R0
WINDOW 123 0 0 Left 0
WINDOW 39 0 0 Left 0
SYMATTR InstName V1
SYMATTR Value 6
SYMBOL voltage -992 -432 R0
WINDOW 123 0 0 Left 0
WINDOW 39 0 0 Left 0
SYMATTR InstName V2
SYMATTR Value -6
SYMBOL voltage -1120 -240 R0
WINDOW 123 -107 98 Left 2
WINDOW 39 0 0 Left 0
WINDOW 0 -86 38 Left 2
WINDOW 3 -193 71 Left 2
SYMATTR Value2 AC 3.3
SYMATTR InstName V3
SYMATTR Value SINE(0 3.3 5k)
SYMBOL ad8021 48 -32 R0
SYMATTR InstName U2
SYMBOL cap 192 -16 R90
WINDOW 0 0 32 VBottom 2
WINDOW 3 32 32 VTop 2
SYMATTR InstName C4
SYMATTR Value 10p
SYMBOL cap 224 0 R0
SYMATTR InstName C5
SYMATTR Value 10p
SYMBOL cap -80 32 R0
WINDOW 0 -33 22 Left 2
WINDOW 3 -56 44 Left 2
SYMATTR InstName C6
SYMATTR Value 0.1µ
SYMBOL OpAmps\\AD8421 576 48 R0
SYMATTR InstName U3
SYMBOL cap 640 160 R0
SYMATTR InstName C7
SYMATTR Value 0.1µ
SYMBOL res 480 112 R180
WINDOW 0 -39 64 Left 2
WINDOW 3 -54 36 Left 2
SYMATTR InstName RG1
SYMATTR Value 100k
SYMBOL cap 592 -96 R180
WINDOW 0 24 56 Left 2
WINDOW 3 24 8 Left 2
SYMATTR InstName C8
SYMATTR Value 0.1µ
SYMBOL cap 560 192 R0
SYMATTR InstName C9
SYMATTR Value 0.1µ
SYMBOL voltage -1216 -416 R0
SYMATTR InstName V4
SYMATTR Value 1.65v
SYMBOL res 320 592 M180
WINDOW 0 36 76 Left 2
WINDOW 3 36 40 Left 2
SYMATTR InstName RShunt1
SYMATTR Value 1k
SYMBOL OpAmps\\AD8421 576 544 R0
SYMATTR InstName U4
SYMBOL cap 640 656 R0
SYMATTR InstName C10
SYMATTR Value 0.1µ
SYMBOL res 480 608 R180
WINDOW 0 -39 64 Left 2
WINDOW 3 -54 36 Left 2
SYMATTR InstName RG2
SYMATTR Value 100k
SYMBOL cap 592 400 R180
WINDOW 0 24 56 Left 2
WINDOW 3 24 8 Left 2
SYMATTR InstName C11
SYMATTR Value 0.1µ
SYMBOL cap 560 688 R0
SYMATTR InstName C12
SYMATTR Value 0.1µ
TEXT -112 -352 Left 2 !.tran 5m
TEXT -112 -312 Left 2 ;.ac dec 1000 100 10000000
