Version 4.1
SHEET 1 880 680
WIRE -2432 -1264 -2688 -1264
WIRE -2080 -1264 -2352 -1264
WIRE -1696 -1152 -1696 -1184
WIRE -2432 -1136 -2640 -1136
WIRE -2192 -1136 -2336 -1136
WIRE -2864 -1104 -2912 -1104
WIRE -2688 -1104 -2688 -1264
WIRE -2688 -1104 -2784 -1104
WIRE -2432 -1104 -2688 -1104
WIRE -2080 -1104 -2080 -1264
WIRE -2080 -1104 -2336 -1104
WIRE -2912 -1072 -2912 -1104
WIRE -2432 -1072 -2496 -1072
WIRE -2304 -1072 -2336 -1072
WIRE -2192 -1072 -2192 -1136
WIRE -2192 -1072 -2240 -1072
WIRE -2496 -1040 -2496 -1072
WIRE -2080 -1040 -2080 -1104
WIRE -1568 -944 -1568 -976
WIRE -1568 -928 -1568 -944
WIRE -2848 -912 -2880 -912
WIRE -2640 -912 -2640 -1136
WIRE -2640 -912 -2768 -912
WIRE -2384 -912 -2640 -912
WIRE -2080 -912 -2080 -960
WIRE -2080 -912 -2304 -912
WIRE -1808 -912 -2080 -912
WIRE -1600 -912 -1808 -912
WIRE -2080 -880 -2080 -912
WIRE -1600 -864 -1600 -880
WIRE -1600 -864 -1680 -864
WIRE -1296 -832 -1424 -832
WIRE -1248 -832 -1296 -832
WIRE -1600 -784 -1680 -784
WIRE -2080 -752 -2080 -800
WIRE -1808 -752 -2080 -752
WIRE -1600 -752 -1808 -752
WIRE -1488 -752 -1488 -768
WIRE -1568 -720 -1568 -736
WIRE -1488 -720 -1488 -752
WIRE -1568 -688 -1568 -720
WIRE -1568 -480 -1568 -512
WIRE -1568 -464 -1568 -480
WIRE -1808 -448 -1808 -752
WIRE -1600 -448 -1808 -448
WIRE -1808 -416 -1808 -448
WIRE -1600 -416 -1696 -416
WIRE -1696 -400 -1696 -416
WIRE -1296 -368 -1424 -368
WIRE -1248 -368 -1296 -368
WIRE -1600 -320 -1696 -320
WIRE -1808 -288 -1808 -336
WIRE -1600 -288 -1808 -288
WIRE -1488 -288 -1488 -304
WIRE -1568 -256 -1568 -272
WIRE -1488 -256 -1488 -288
WIRE -1568 -224 -1568 -256
FLAG -2880 -912 0
FLAG -2080 -912 Vout
FLAG -2496 -1072 VCC
IOPIN -2496 -1072 In
FLAG -2192 -1136 VEE
IOPIN -2192 -1136 In
FLAG -2192 -1008 0
FLAG -2496 -976 0
FLAG -2912 -992 0
FLAG -1808 -912 Vout_injection/Vin_measurement
FLAG -1488 -656 0
FLAG -1488 -192 0
FLAG -1568 -160 0
FLAG -1568 -1040 0
FLAG -1568 -576 0
FLAG -1568 -944 VCC
IOPIN -1568 -944 In
FLAG -1568 -480 VCC
IOPIN -1568 -480 In
FLAG -1568 -624 0
FLAG -1568 -720 VEE
IOPIN -1568 -720 In
FLAG -1568 -256 VEE
IOPIN -1568 -256 In
FLAG -1488 -752 1.5v
IOPIN -1488 -752 In
FLAG -1488 -288 1.5v
IOPIN -1488 -288 In
FLAG -1296 -368 U_Rshunt
FLAG -1296 -832 U_DUT
FLAG -1808 -288 0
FLAG -1920 -1072 0
FLAG -1808 -1072 0
FLAG -1808 -1152 VEE
IOPIN -1808 -1152 In
FLAG -1920 -1152 VCC
IOPIN -1920 -1152 In
FLAG -1696 -1072 0
FLAG -1696 -1184 1.5v
IOPIN -1696 -1184 In
SYMBOL res -2336 -1248 M270
WINDOW 0 32 56 VTop 2
WINDOW 3 0 56 VBottom 2
SYMATTR InstName R4
SYMATTR Value 14k
SYMBOL res -2752 -928 R90
WINDOW 0 0 56 VBottom 2
WINDOW 3 32 56 VTop 2
SYMATTR InstName R3
SYMATTR Value 16k
SYMBOL ad8021 -2384 -1104 R0
SYMATTR InstName U1
SYMBOL res -2880 -1120 M90
WINDOW 0 0 56 VBottom 2
WINDOW 3 32 56 VTop 2
SYMATTR InstName R1
SYMATTR Value 16k
SYMBOL res -2064 -1056 M0
WINDOW 0 -49 37 Left 2
WINDOW 3 -36 65 Left 2
SYMATTR InstName R2b
SYMATTR Value 7k
SYMBOL res -2400 -928 M90
WINDOW 0 0 56 VBottom 2
WINDOW 3 32 56 VTop 2
SYMATTR InstName R2a
SYMATTR Value 7k
SYMBOL res -2096 -784 M180
WINDOW 0 36 76 Left 2
WINDOW 3 36 40 Left 2
SYMATTR InstName ZL1
SYMATTR Value 1K
SYMBOL cap -2240 -1088 R90
WINDOW 0 0 32 VBottom 2
WINDOW 3 32 32 VTop 2
SYMATTR InstName C1
SYMATTR Value 10p
SYMBOL cap -2208 -1072 R0
SYMATTR InstName C2
SYMATTR Value 10p
SYMBOL cap -2512 -1040 R0
WINDOW 0 -33 22 Left 2
WINDOW 3 -56 44 Left 2
SYMATTR InstName C3
SYMATTR Value 0.1µ
SYMBOL voltage -2912 -1088 R0
WINDOW 123 -107 98 Left 2
WINDOW 39 0 0 Left 0
WINDOW 0 -86 38 Left 2
WINDOW 3 -193 71 Left 2
SYMATTR Value2 AC 3.3
SYMATTR InstName V1
SYMATTR Value SINE(0 3.3 5k)
SYMBOL OpAmps\\AD8421 -1568 -832 R0
SYMATTR InstName U2
SYMBOL OpAmps\\AD8421 -1568 -368 R0
SYMATTR InstName U3
SYMBOL cap -1504 -720 R0
SYMATTR InstName C4
SYMATTR Value 0.1µ
SYMBOL cap -1504 -256 R0
SYMATTR InstName C5
SYMATTR Value 0.1µ
SYMBOL cap -1584 -224 R0
SYMATTR InstName C6
SYMATTR Value 0.1µ
SYMBOL res -1664 -768 R180
WINDOW 0 -39 64 Left 2
WINDOW 3 -54 36 Left 2
SYMATTR InstName RG1
SYMATTR Value 100k
SYMBOL res -1680 -304 R180
WINDOW 0 -26 67 Left 2
WINDOW 3 -65 42 Left 2
SYMATTR InstName R6
SYMATTR Value 100k
SYMBOL cap -1552 -976 R180
WINDOW 0 24 56 Left 2
WINDOW 3 24 8 Left 2
SYMATTR InstName C7
SYMATTR Value 0.1µ
SYMBOL cap -1552 -512 R180
WINDOW 0 24 56 Left 2
WINDOW 3 24 8 Left 2
SYMATTR InstName C8
SYMATTR Value 0.1µ
SYMBOL cap -1584 -688 R0
SYMATTR InstName C9
SYMATTR Value 0.1µ
SYMBOL res -1792 -320 R180
WINDOW 0 36 76 Left 2
WINDOW 3 36 40 Left 2
SYMATTR InstName RShunt1
SYMATTR Value 1k
SYMBOL voltage -1920 -1168 R0
WINDOW 123 0 0 Left 0
WINDOW 39 0 0 Left 0
SYMATTR InstName V2
SYMATTR Value 6
SYMBOL voltage -1808 -1168 R0
WINDOW 123 0 0 Left 0
WINDOW 39 0 0 Left 0
SYMATTR InstName V3
SYMATTR Value -6
SYMBOL voltage -1696 -1168 R0
SYMATTR InstName V4
SYMATTR Value 1.5v
TEXT -3480 -832 Left 2 !.tran 2m
TEXT -3480 -800 Left 2 ;.ac dec 1000 1 10000000
TEXT -3744 -736 Left 2 ;-vdut>0 FOR MAX ZL=11.5K, and 0<vDUT<3V\n-ZL=[1,15k] ohm, between 1KHz and 300KHz\n \nin the transient:\n-I_ZL=I_RsHUNT (condition nedded for later)\n-I_ZL< 120uA (ac analysis)\n-for Vinput<1V no saturation (transient) \n \nin the ac analysis, \n-ZL is stable <1Mhz\n-view Z_DUT like this: \n(V(u_dut)/V(U_rshunt))*1000\n \n-current stable (ac analysis), sinusoidal (transient)\n-power supply=+-5V\n-POWER CONSUMPTION= 51mW x2 (+vcc, -vcc) = 102 mW
