Version 4.1
SHEET 1 880 3160
WIRE -2192 1824 -2448 1824
WIRE -1840 1824 -2112 1824
WIRE -2192 1952 -2400 1952
WIRE -1952 1952 -2096 1952
WIRE -2624 1984 -2672 1984
WIRE -2448 1984 -2448 1824
WIRE -2448 1984 -2544 1984
WIRE -2192 1984 -2448 1984
WIRE -1840 1984 -1840 1824
WIRE -1840 1984 -2096 1984
WIRE -2672 2016 -2672 1984
WIRE -2192 2016 -2256 2016
WIRE -2064 2016 -2096 2016
WIRE -1952 2016 -1952 1952
WIRE -1952 2016 -2000 2016
WIRE -2256 2048 -2256 2016
WIRE -1840 2048 -1840 1984
WIRE -2608 2176 -2640 2176
WIRE -2400 2176 -2400 1952
WIRE -2400 2176 -2528 2176
WIRE -2144 2176 -2400 2176
WIRE -1840 2176 -1840 2128
WIRE -1840 2176 -2064 2176
WIRE -1840 2208 -1840 2176
WIRE -1840 2336 -1840 2288
FLAG -2640 2176 0
FLAG -1840 2176 Vout
FLAG -2256 2016 5V
IOPIN -2256 2016 In
FLAG -1952 1952 -5V
IOPIN -1952 1952 In
FLAG -1840 2336 0
FLAG -1952 2080 0
FLAG -2256 2112 0
FLAG -1632 1968 0
FLAG -1520 1968 0
FLAG -1520 1888 -5V
IOPIN -1520 1888 In
FLAG -1632 1888 5V
IOPIN -1632 1888 In
FLAG -2672 2096 0
SYMBOL res -2096 1840 M270
WINDOW 0 32 56 VTop 2
WINDOW 3 0 56 VBottom 2
SYMATTR InstName R4
SYMATTR Value 3.5K
SYMBOL res -2512 2160 R90
WINDOW 0 0 56 VBottom 2
WINDOW 3 32 56 VTop 2
SYMATTR InstName R3
SYMATTR Value 30K
SYMBOL ad8021 -2144 1984 R0
SYMATTR InstName U7
SYMBOL res -2640 1968 M90
WINDOW 0 0 56 VBottom 2
WINDOW 3 32 56 VTop 2
SYMATTR InstName R1
SYMATTR Value 30K
SYMBOL res -1824 2032 M0
WINDOW 0 -49 37 Left 2
WINDOW 3 -36 65 Left 2
SYMATTR InstName R2b
SYMATTR Value 3K
SYMBOL res -2160 2160 M90
WINDOW 0 0 56 VBottom 2
WINDOW 3 32 56 VTop 2
SYMATTR InstName R2a
SYMATTR Value 0.5K
SYMBOL res -1856 2304 M180
WINDOW 0 36 76 Left 2
WINDOW 3 36 40 Left 2
SYMATTR InstName ZL2
SYMATTR Value 25K
SYMBOL cap -2000 2000 R90
WINDOW 0 0 32 VBottom 2
WINDOW 3 32 32 VTop 2
SYMATTR InstName C1
SYMATTR Value 7p
SYMBOL cap -1968 2016 R0
SYMATTR InstName C2
SYMATTR Value 10p
SYMBOL cap -2272 2048 R0
WINDOW 0 -33 22 Left 2
WINDOW 3 -56 44 Left 2
SYMATTR InstName C3
SYMATTR Value 0.1µ
SYMBOL voltage -1632 1872 R0
WINDOW 123 0 0 Left 0
WINDOW 39 0 0 Left 0
SYMATTR InstName V1
SYMATTR Value 6
SYMBOL voltage -1520 1872 R0
WINDOW 123 0 0 Left 0
WINDOW 39 0 0 Left 0
SYMATTR InstName V2
SYMATTR Value -6
SYMBOL voltage -2672 2000 R0
WINDOW 123 -107 98 Left 2
WINDOW 39 0 0 Left 0
WINDOW 0 -86 38 Left 2
WINDOW 3 -193 71 Left 2
SYMATTR Value2 AC 3.3
SYMATTR InstName V3
SYMATTR Value SINE(0 3.3 5k)
TEXT -1648 2088 Left 2 ;.tran 5m
TEXT -1648 2120 Left 2 !.ac dec 1000 100 10000000
TEXT -1648 2168 Left 2 ;-ZL=[100,15k] ohm, between 1KHz and 300KHz\n-power supply=+-5V\n-current stable (acs analysis), sinusoidal (transient)\n-current < 180uA (acs analysis)\n-for Vinput<4V no saturation (transient) \n-POWER CONSUMPTION= 6.26mW x2 (+vcc, -vcc) = 12.52 mW\n-no big difference than without stray capacitances
