Version 4.1
SHEET 1 1240 1632
WIRE -240 96 -400 96
WIRE -368 160 -624 160
WIRE -112 160 -272 160
WIRE -400 192 -400 96
WIRE -368 192 -400 192
WIRE -240 192 -240 96
WIRE -240 192 -272 192
WIRE 16 192 -240 192
WIRE -368 224 -464 224
WIRE -240 224 -272 224
WIRE -112 224 -112 160
WIRE -112 224 -176 224
WIRE -464 304 -464 288
WIRE 16 368 16 192
WIRE -512 528 -528 528
WIRE -368 528 -512 528
WIRE -32 528 -272 528
WIRE -624 560 -624 160
WIRE -368 560 -624 560
WIRE 16 560 16 448
WIRE 16 560 -272 560
WIRE 112 560 16 560
WIRE 240 560 192 560
WIRE -512 592 -512 528
WIRE -464 592 -512 592
WIRE -368 592 -400 592
WIRE -128 592 -272 592
WIRE -624 624 -624 560
WIRE -128 656 -128 640
WIRE -624 928 -624 704
WIRE -400 928 -624 928
WIRE -32 928 -32 528
WIRE -32 928 -320 928
WIRE 64 928 -32 928
WIRE 176 928 144 928
WIRE -624 960 -624 928
WIRE -624 1088 -624 1040
FLAG 176 928 0
FLAG -48 160 0
FLAG 256 240 0
FLAG -592 528 0
FLAG -624 928 Vout
FLAG 240 640 0
FLAG 352 240 0
FLAG 256 160 VCC
IOPIN 256 160 In
FLAG -464 304 0
FLAG -128 656 0
FLAG 352 160 VEE
IOPIN 352 160 In
FLAG -624 1088 0
FLAG -464 224 VCC
IOPIN -464 224 In
FLAG -128 592 VCC
IOPIN -128 592 In
FLAG -112 224 VEE
IOPIN -112 224 In
FLAG -512 592 VEE
IOPIN -512 592 In
SYMBOL res 0 352 R0
SYMATTR InstName R7
SYMATTR Value 14k
SYMBOL res 48 912 M90
WINDOW 0 0 56 VBottom 2
WINDOW 3 32 56 VTop 2
SYMATTR InstName R5
SYMATTR Value 16k
SYMBOL cap -144 656 M180
WINDOW 0 39 31 Left 2
WINDOW 3 24 8 Left 2
SYMATTR InstName C4
SYMATTR Value 0.1µ
SYMBOL ad8021 -320 192 R0
SYMATTR InstName U3
SYMBOL ad8021 -320 560 M0
SYMATTR InstName U2
SYMBOL cap -176 208 R90
WINDOW 0 0 32 VBottom 2
WINDOW 3 32 32 VTop 2
SYMATTR InstName C8
SYMATTR Value 10p
SYMBOL cap -48 144 R90
WINDOW 0 0 32 VBottom 2
WINDOW 3 32 32 VTop 2
SYMATTR InstName C7
SYMATTR Value 10p
SYMBOL res 208 544 R90
WINDOW 0 0 56 VBottom 2
WINDOW 3 32 56 VTop 2
SYMATTR InstName R6
SYMATTR Value 16k
SYMBOL res -640 608 R0
SYMATTR InstName R4
SYMATTR Value 7k
SYMBOL res -304 912 R90
WINDOW 0 0 56 VBottom 2
WINDOW 3 32 56 VTop 2
SYMATTR InstName R2
SYMATTR Value 7k
SYMBOL voltage 256 144 M0
WINDOW 123 0 0 Left 0
WINDOW 39 0 0 Left 0
WINDOW 0 31 73 Left 2
SYMATTR InstName v5
SYMATTR Value 6V
SYMBOL cap -480 288 M180
WINDOW 0 -34 35 Left 2
WINDOW 3 -41 13 Left 2
SYMATTR InstName C9
SYMATTR Value 0.1µ
SYMBOL cap -464 576 M90
WINDOW 0 39 8 VBottom 2
WINDOW 3 32 32 VTop 2
SYMATTR InstName C5
SYMATTR Value 10p
SYMBOL cap -592 512 M90
WINDOW 0 0 32 VBottom 2
WINDOW 3 19 47 VTop 2
SYMATTR InstName C6
SYMATTR Value 10p
SYMBOL voltage 240 544 R0
WINDOW 123 24 124 Left 2
WINDOW 39 0 0 Left 0
SYMATTR Value2 AC 3.3
SYMATTR InstName V3
SYMATTR Value SINE(0 3.3 1k)
SYMBOL res -608 1056 R180
WINDOW 0 36 76 Left 2
WINDOW 3 36 40 Left 2
SYMATTR InstName ZL
SYMATTR Value 2K
SYMBOL voltage 352 144 R0
WINDOW 123 0 0 Left 0
WINDOW 39 0 0 Left 0
WINDOW 0 34 70 Left 2
SYMATTR InstName V2
SYMATTR Value -6v
TEXT 200 368 Left 2 ;.tran 15m
TEXT 208 424 Left 2 !.ac dec 500 1K 1200000k
TEXT 200 312 Left 2 !.options method=gear
