Version 4.1
SHEET 1 880 1684
WIRE -1872 -96 -2032 -96
WIRE -2000 -32 -2256 -32
WIRE -1744 -32 -1904 -32
WIRE -2032 0 -2032 -96
WIRE -2000 0 -2032 0
WIRE -1872 0 -1872 -96
WIRE -1872 0 -1904 0
WIRE -1616 0 -1872 0
WIRE -2064 32 -2096 32
WIRE -2000 32 -2064 32
WIRE -1872 32 -1904 32
WIRE -1744 32 -1744 -32
WIRE -1744 32 -1808 32
WIRE -1264 32 -1264 0
WIRE -2096 112 -2096 96
WIRE -1616 176 -1616 0
WIRE -2144 336 -2160 336
WIRE -2000 336 -2144 336
WIRE -1664 336 -1904 336
WIRE -2256 368 -2256 -32
WIRE -2000 368 -2256 368
WIRE -1616 368 -1616 256
WIRE -1616 368 -1904 368
WIRE -1520 368 -1616 368
WIRE -1392 368 -1440 368
WIRE -2144 400 -2144 336
WIRE -2096 400 -2144 400
WIRE -2000 400 -2032 400
WIRE -1760 400 -1904 400
WIRE -2256 432 -2256 368
WIRE -1760 464 -1760 448
WIRE -2256 736 -2256 512
WIRE -2032 736 -2256 736
WIRE -1664 736 -1664 336
WIRE -1664 736 -1952 736
WIRE -1568 736 -1664 736
WIRE -1456 736 -1488 736
WIRE -1696 848 -1888 848
WIRE -896 848 -896 816
WIRE -896 864 -896 848
WIRE -2256 880 -2256 736
WIRE -1984 880 -2256 880
WIRE -1136 880 -1888 880
WIRE -928 880 -1136 880
WIRE -2032 912 -2176 912
WIRE -1984 912 -2032 912
WIRE -1824 912 -1888 912
WIRE -1696 912 -1696 848
WIRE -1696 912 -1760 912
WIRE -1136 912 -1136 880
WIRE -928 928 -928 912
WIRE -928 928 -1008 928
WIRE -624 960 -752 960
WIRE -576 960 -624 960
WIRE -2176 976 -2176 960
WIRE -928 1008 -1008 1008
WIRE -1136 1040 -1136 992
WIRE -928 1040 -1136 1040
WIRE -816 1040 -816 1024
WIRE -896 1072 -896 1056
WIRE -816 1072 -816 1040
WIRE -896 1104 -896 1072
WIRE -896 1344 -896 1312
WIRE -896 1360 -896 1344
WIRE -1136 1376 -1136 1040
WIRE -928 1376 -1136 1376
WIRE -1136 1408 -1136 1376
WIRE -928 1408 -1024 1408
WIRE -1024 1424 -1024 1408
WIRE -624 1456 -752 1456
WIRE -576 1456 -624 1456
WIRE -928 1504 -1024 1504
WIRE -2256 1536 -2256 880
WIRE -1136 1536 -1136 1488
WIRE -1136 1536 -2256 1536
WIRE -928 1536 -1136 1536
WIRE -816 1536 -816 1520
WIRE -896 1568 -896 1552
WIRE -816 1568 -816 1536
WIRE -896 1600 -896 1568
FLAG -1456 736 0
FLAG -1680 -32 0
FLAG -1472 112 0
FLAG -2224 336 0
FLAG -1632 848 0
FLAG -1984 848 0
FLAG -1136 880 Vout_injection/Vin_measurement
FLAG -1376 112 0
FLAG -1472 32 VCC
FLAG -2096 112 0
FLAG -1760 464 0
FLAG -2176 976 0
FLAG -1760 400 VCC
IOPIN -1760 400 In
FLAG -2032 912 VCC
IOPIN -2032 912 In
FLAG -2064 32 VCC
IOPIN -2064 32 In
FLAG -2144 400 VEE
IOPIN -2144 400 In
FLAG -1744 32 VEE
IOPIN -1744 32 In
FLAG -1696 912 VEE
IOPIN -1696 912 In
FLAG -1376 32 VEE
FLAG -816 1136 0
FLAG -816 1632 0
FLAG -1264 112 0
FLAG -1264 0 1.5v
FLAG -896 1664 0
FLAG -896 752 0
FLAG -896 1248 0
FLAG -896 848 VCC
IOPIN -896 848 In
FLAG -896 1344 VCC
IOPIN -896 1344 In
FLAG -896 1168 0
FLAG -896 1072 VEE
IOPIN -896 1072 In
FLAG -896 1568 VEE
IOPIN -896 1568 In
FLAG -816 1040 1.5v
FLAG -816 1536 1.5v
FLAG -624 1456 U_Rshunt
FLAG -624 960 U_DUT
FLAG -1392 448 0
SYMBOL res -1632 160 R0
SYMATTR InstName R1
SYMATTR Value 14k
SYMBOL res -1584 720 M90
WINDOW 0 0 56 VBottom 2
WINDOW 3 32 56 VTop 2
SYMATTR InstName R2
SYMATTR Value 16k
SYMBOL cap -1776 464 M180
WINDOW 0 39 31 Left 2
WINDOW 3 24 8 Left 2
SYMATTR InstName C1
SYMATTR Value 0.1µ
SYMBOL ad8021 -1952 0 R0
SYMATTR InstName U1
SYMBOL ad8021 -1952 368 M0
SYMATTR InstName U2
SYMBOL cap -1808 16 R90
WINDOW 0 0 32 VBottom 2
WINDOW 3 32 32 VTop 2
SYMATTR InstName C2
SYMATTR Value 10p
SYMBOL cap -1680 -48 R90
WINDOW 0 0 32 VBottom 2
WINDOW 3 32 32 VTop 2
SYMATTR InstName C3
SYMATTR Value 10p
SYMBOL res -1424 352 R90
WINDOW 0 0 56 VBottom 2
WINDOW 3 32 56 VTop 2
SYMATTR InstName R3
SYMATTR Value 16k
SYMBOL res -2272 416 R0
SYMATTR InstName R4
SYMATTR Value 7k
SYMBOL cap -2160 976 R180
WINDOW 0 42 31 Left 2
WINDOW 3 24 8 Left 2
SYMATTR InstName C4
SYMATTR Value 0.1µ
SYMBOL ad8021 -1936 880 R0
SYMATTR InstName U3
SYMBOL cap -1760 896 R90
WINDOW 0 0 32 VBottom 2
WINDOW 3 32 32 VTop 2
SYMATTR InstName C5
SYMATTR Value 10p
SYMBOL res -1936 720 R90
WINDOW 0 0 56 VBottom 2
WINDOW 3 32 56 VTop 2
SYMATTR InstName R5
SYMATTR Value 7k
SYMBOL voltage -1472 16 M0
WINDOW 123 0 0 Left 0
WINDOW 39 0 0 Left 0
WINDOW 0 29 77 Left 2
SYMATTR InstName v1
SYMATTR Value 6
SYMBOL cap -2112 96 M180
WINDOW 0 -34 35 Left 2
WINDOW 3 -41 13 Left 2
SYMATTR InstName C6
SYMATTR Value 0.1µ
SYMBOL cap -2096 384 M90
WINDOW 0 39 8 VBottom 2
WINDOW 3 32 32 VTop 2
SYMATTR InstName C7
SYMATTR Value 10p
SYMBOL cap -2224 320 M90
WINDOW 0 0 32 VBottom 2
WINDOW 3 19 47 VTop 2
SYMATTR InstName C8
SYMATTR Value 10p
SYMBOL cap -1632 832 R90
WINDOW 0 0 32 VBottom 2
WINDOW 3 32 32 VTop 2
SYMATTR InstName C9
SYMATTR Value 10p
SYMBOL res -1120 1008 R180
WINDOW 0 36 76 Left 2
WINDOW 3 36 40 Left 2
SYMATTR InstName ZL1
SYMATTR Value 3.5k
SYMBOL voltage -1376 16 R0
WINDOW 123 0 0 Left 0
WINDOW 39 0 0 Left 0
SYMATTR InstName V3
SYMATTR Value -6
SYMBOL OpAmps\\AD8421 -896 960 R0
SYMATTR InstName U4
SYMBOL OpAmps\\AD8421 -896 1456 R0
SYMATTR InstName U5
SYMBOL cap -832 1072 R0
SYMATTR InstName C10
SYMATTR Value 0.1µ
SYMBOL cap -832 1568 R0
SYMATTR InstName C11
SYMATTR Value 0.1µ
SYMBOL voltage -1264 16 R0
SYMATTR InstName V4
SYMATTR Value 1.65v
SYMBOL cap -912 1600 R0
SYMATTR InstName C12
SYMATTR Value 0.1µ
SYMBOL res -992 1024 R180
WINDOW 0 -39 64 Left 2
WINDOW 3 -54 36 Left 2
SYMATTR InstName R6
SYMATTR Value 100k
SYMBOL res -1008 1520 R180
WINDOW 0 -26 67 Left 2
WINDOW 3 -65 42 Left 2
SYMATTR InstName R7
SYMATTR Value 100k
SYMBOL cap -880 816 R180
WINDOW 0 24 56 Left 2
WINDOW 3 24 8 Left 2
SYMATTR InstName C13
SYMATTR Value 0.1µ
SYMBOL cap -880 1312 R180
WINDOW 0 24 56 Left 2
WINDOW 3 24 8 Left 2
SYMATTR InstName C14
SYMATTR Value 0.1µ
SYMBOL cap -912 1104 R0
SYMATTR InstName C15
SYMATTR Value 0.1µ
SYMBOL res -1120 1504 R180
WINDOW 0 36 76 Left 2
WINDOW 3 36 40 Left 2
SYMATTR InstName RShunt1
SYMATTR Value 1k
SYMBOL voltage -1392 352 R0
WINDOW 123 24 124 Left 2
WINDOW 39 0 0 Left 0
SYMATTR Value2 AC 3.3
SYMATTR InstName V5
SYMATTR Value SINE(0 3.3 5k)
TEXT -784 152 Left 2 !.tran 5m
TEXT -776 208 Left 2 ;.ac dec 500 1K 12000k
TEXT -784 96 Left 2 !.options method=gear
TEXT -696 1384 Left 2 ;offset de 1.5v, G=1.099\ni should visualize Vurshunt-1.5v to see urshunt=G*Urshunt
TEXT -672 888 Left 2 ;offset de 1.5v, G=1.099\ni should visualize U_DUT-1.5v
TEXT -528 1144 Left 2 ;in the ac analysis, view Z_DUT like this: \n(V(u_dut)/V(U_rshunt))*1000
TEXT 16 1144 Left 2 ;Udut and urshunt are less noisy with howlan than with tietze
